***************************************************************************
* PFET BSIM3v3.2.4 Model
***************************************************************************
.model pch pmos
+level	  = 49		   version = 3.24
+tnom	 = 25		  tox	  = tox_p	   mobmod  = 1
+xj	 = 2e-7		  nch	  = 3e17	   vth0	   = 'vth0_p+mmvth0'
+k1	 = 0.669593	  k2	  = -0.0372971	   k3	   = -4.13281
+k3b	 = 5		  w0	  = 4.12017e-8	   nlx	   = 1.82384e-8
+dvt0w	 = 0.443837	  dvt1w	  = 9.98979e6	   dvt2w   = 0.0839596
+dvt0	 = 0.444071	  dvt1	  = 0.90259	   dvt2	   = -1.2310
+wk3b	 = 0		  u0	  = 'u0_p+mmbeta'  ua	   = 1.44199e-10
+ub	 = 1.4409e-18	  uc	  = -1.476e-10	   vsat	   = 1.89e5
+a0	 = 1.045	  ags	  = 0.4095	   b0	   = 1.9e-6
+b1	 = 4.877e-6	  keta	  = -0.0581015	   a1	   = 0.004582
+a2	 = 0.42		  rdsw	  = rdsw_p	   prwg	   = 4.441e-17
+prwb	 = 0.263712	  wr	  = 1		   wint	   = wint_p
+lint	 = lint_p	  lvsat	  = -4.441e-10	   dwg	   = -1.687e-8
+dwb	 = -4.441e-10	  voff	  = -0.132145	   nfactor = 0.9
+cit	 = 0		  cdsc	  = 0		   cdscd   = 0.001698
+cdscb	 = 0.000871	  eta0	  = 0.335	   etab	   = -0.1
+dsub	 = 1.15		  pclm	  = 1.55	   pdiblc1 = 0.003
+pdiblc2 = 0.001343	  pdiblcb = -0.6	   drout   = 0.04647
+pscbe1	 = 3e8		  pscbe2  = 3.6085e-7	   pvag	   = 4.967
+delta	 = 0.005655	  ngate	  = 1e20	   alpha0  = 2.19e-9
+alpha1	 = 0.03013	  beta0	  = 14.4	   lrdsw   = -45.874
+wuc	 = -2.15e-11	  wketa	  = 0.01	   wu0	   = -7.246
+wl	 = -9.14843e-16	  wln	  = 1		   pags	   = 0
+ww	 = -7.04235e-15	  wwn	  = 1.00521	   wwl	   = 1.65e-21
+ll	 = 0		  lln	  = 0		   lw	   = -6.32538e-22
+lwn	 = 0		  lwl	  = 0		   lua	   = 1e-15
+lub	 = 4.207e-20	  luc	  = 3.625e-11	   lu0	   = -0.9
+lags	 = 0.1887	  paramchk= 0		   binunit = 1
*
*
*
***************************************************************************
* Capacitance-Voltage (CV) Parameters
***************************************************************************
*+capmod = 2		  xpart	  = 0		  acde	  = 1.2
*+cgso	= cgso_p	  cgdo	  = cgdo_p	  cgbo	  = 4.062e-11
*+cgsl	= cgsl_p	  cgdl	  = cgdl_p	  ckappa  = 4.3221
*+cf	= 0		  dlc = 'lint_p+2.8e-8'	  dwc	  = wint_p
*+llc	= 0		  lwc	  = 0		  lwlc	  = 0
*+wlc	= 0		  wwc	  = 0		  wwlc	  = 0

+capmod = 2		  xpart	  = 0		  acde	  = 1.2
+cgso	= cgso_p	  cgdo	  = cgdo_p	  cgbo	  = 4.062e-11
+cgsl	= cgsl_p	  cgdl	  = cgdl_p	  ckappa  = 4.3221
+cf	= 0		  dlc = 0	  dwc	  = wint_p
+llc	= 0		  lwc	  = 0		  lwlc	  = 0
+wlc	= 0		  wwc	  = 0		  wwlc	  = 0


*

***************************************************************************
* Flicker Noise Parameters
***************************************************************************
+noimod = 2		   noia = '9.62e+18*noi_mul'  noib = '1.38e6*noi_mul'
+noic = '9.86e-12*noi_mul' em	  = 1.17e+8	      af   = 1
+ef	= 1.265		   kf	  = 0	  )
*

